@<TRIPOS>MOLECULE
title
 14 13 0 0 0
SMALL
GASTEIGER

@<TRIPOS>ATOM
      1 C           0.9367   -0.0979   -0.0621 C.3     1  UNL1       -0.0653
      2 H           0.5358   -1.0950    0.1468 H       1  UNL1        0.0230
      3 H           0.5050    0.6040    0.6586 H       1  UNL1        0.0230
      4 H           0.6081    0.1975   -1.0632 H       1  UNL1        0.0230
      5 C           2.4551   -0.0928    0.0169 C.3     1  UNL1       -0.0562
      6 H           2.8232    0.9181   -0.1955 H       1  UNL1        0.0263
      7 H           2.8579   -0.7537   -0.7596 H       1  UNL1        0.0263
      8 C           2.9470   -0.5490    1.3892 C.3     1  UNL1       -0.0562
      9 H           2.5363    0.1024    2.1695 H       1  UNL1        0.0263
     10 H           2.5875   -1.5647    1.5926 H       1  UNL1        0.0263
     11 C           4.4649   -0.5318    1.4721 C.3     1  UNL1       -0.0653
     12 H           4.8524    0.4832    1.3391 H       1  UNL1        0.0230
     13 H           4.9082   -1.1729    0.7032 H       1  UNL1        0.0230
     14 H           4.7950   -0.8959    2.4498 H       1  UNL1        0.0230
@<TRIPOS>BOND
     1     3     1    1
     2     4     1    1
     3     2     1    1
     4     1     5    1
     5     9     8    1
     6     5     6    1
     7     5     8    1
     8     5     7    1
     9    10     8    1
    10     8    11    1
    11    11    13    1
    12    11    12    1
    13    11    14    1
