@<TRIPOS>MOLECULE
title
   14    13     1     0     0
SMALL
bcc


@<TRIPOS>ATOM
      1 C           -2.4930     0.3490    -0.0100 CT         1 UNL      -0.092100
      2 H           -2.1370    -0.6820    -0.0230 HC         1 UNL       0.032367
      3 H1          -2.1460     0.8310    -0.9270 HC         1 UNL       0.032367
      4 H2          -3.5850     0.3230    -0.0460 HC         1 UNL       0.032367
      5 C1          -2.0000     1.0970     1.2270 CT         1 UNL      -0.080400
      6 H3          -0.9060     1.0770     1.2540 HC         1 UNL       0.038700
      7 H4          -2.3340     0.5730     2.1280 HC         1 UNL       0.038700
      8 C2          -2.4760     2.5490     1.2880 CT         1 UNL      -0.080400
      9 H5          -2.1420     3.0740     0.3870 HC         1 UNL       0.038700
     10 H6          -3.5700     2.5690     1.2610 HC         1 UNL       0.038700
     11 C3          -1.9830     3.2970     2.5250 CT         1 UNL      -0.092100
     12 H7          -0.8910     3.3230     2.5610 HC         1 UNL       0.032367
     13 H8          -2.3390     4.3280     2.5380 HC         1 UNL       0.032367
     14 H9          -2.3300     2.8150     3.4420 HC         1 UNL       0.032367
@<TRIPOS>BOND
     1     3     1 1   
     2     4     1 1   
     3     2     1 1   
     4     1     5 1   
     5     9     8 1   
     6     5     6 1   
     7     5     8 1   
     8     5     7 1   
     9    10     8 1   
    10     8    11 1   
    11    11    13 1   
    12    11    12 1   
    13    11    14 1   
@<TRIPOS>SUBSTRUCTURE
     1 UNL         1 TEMP              0 ****  ****    0 ROOT
