@<TRIPOS>MOLECULE
title
 14 13 0 0 0
SMALL
GASTEIGER

@<TRIPOS>ATOM
      1 C          -2.4934    0.3495   -0.0103 C.3     1  UNL1       -0.0653
      2 H          -2.1372   -0.6818   -0.0234 H       1  UNL1        0.0230
      3 H          -2.1461    0.8313   -0.9269 H       1  UNL1        0.0230
      4 H          -3.5847    0.3233   -0.0465 H       1  UNL1        0.0230
      5 C          -2.0002    1.0971    1.2269 C.3     1  UNL1       -0.0562
      6 H          -0.9062    1.0768    1.2543 H       1  UNL1        0.0263
      7 H          -2.3338    0.5726    2.1279 H       1  UNL1        0.0263
      8 C          -2.4757    2.5491    1.2879 C.3     1  UNL1       -0.0562
      9 H          -2.1422    3.0735    0.3869 H       1  UNL1        0.0263
     10 H          -3.5698    2.5693    1.2606 H       1  UNL1        0.0263
     11 C          -1.9826    3.2967    2.5251 C.3     1  UNL1       -0.0653
     12 H          -0.8913    3.3229    2.5613 H       1  UNL1        0.0230
     13 H          -2.3388    4.3279    2.5382 H       1  UNL1        0.0230
     14 H          -2.3299    2.8148    3.4417 H       1  UNL1        0.0230
@<TRIPOS>BOND
     1     3     1    1
     2     4     1    1
     3     2     1    1
     4     1     5    1
     5     9     8    1
     6     5     6    1
     7     5     8    1
     8     5     7    1
     9    10     8    1
    10     8    11    1
    11    11    13    1
    12    11    12    1
    13    11    14    1
